
**** 10/09/23 14:08:30 ******* PSpice 17.4.0 (Nov 2018) ******* ID# 0 ********

 ** Profile: "SCHEMATIC1-Transient1"  [ C:\Dev\TAUV-Hardware\TAUV-Acoustics-V2\Simulation\Frontend-Design-Candidates\frontend-design-


 ****     CIRCUIT DESCRIPTION


******************************************************************************




** Creating circuit file "Transient1.cir" 
** WARNING: THIS AUTOMATICALLY GENERATED FILE MAY BE OVERWRITTEN BY SUBSEQUENT SIMULATIONS

*Libraries: 
* Profile Libraries :
* Local Libraries :
* From [PSPICE NETLIST] section of C:\Users\Gleb Ryabtsev\AppData\Roaming\SPB_Data\cdssetup\OrCAD_PSpice\17.4.0\PSpice.ini file:
.lib "nom.lib" 

*Analysis directives: 
.TRAN  0 0.5ms 0 0.1u 
.OPTIONS ADVCONV
.PROBE64 V(alias(*)) I(alias(*)) W(alias(*)) D(alias(*)) NOISE(alias(*)) 
.INC "..\SCHEMATIC1.net" 



**** INCLUDING SCHEMATIC1.net ****
* source FRONTEND-DESIGN-CANDIDATES
V_V1         12V 0 12V
V_V2         0 -12V 12
V_V4         N03290 0  AC 2.5V
+SIN 0 2.5V 400k 0 0 0
X_U1         N03290 N04548 12V -12V N04690 N04348 LT1210/LT
C_C1         0 N04348  10n  TC=0,0 
R_R1         N04548 N04690  500 TC=0,0 
R_P_R1         0 P_N00154  33.4 TC=0,0 
C_P_C1         P_N00150 N09242  4.2nF  TC=0,0 
C_P_C2         0 N09242  15.9n  TC=0,0 
L_P_L1         P_N00154 P_N00150  8.9mH  
X_TX1    N04690 0 N09242 0 SCHEMATIC1_TX1 
.PARAM  lval=1mh

.subckt SCHEMATIC1_TX1 1 2 3 4  
K_TX1         L1_TX1 L2_TX1 1
L1_TX1         1 2 100H
L2_TX1         3 4 10000H
.ends SCHEMATIC1_TX1

**** RESUMING Transient1.cir ****
.END

**** 10/09/23 14:08:30 ******* PSpice 17.4.0 (Nov 2018) ******* ID# 0 ********

 ** Profile: "SCHEMATIC1-Transient1"  [ C:\Dev\TAUV-Hardware\TAUV-Acoustics-V2\Simulation\Frontend-Design-Candidates\frontend-design-


 ****     Diode MODEL PARAMETERS


******************************************************************************




               X_U1.DC         X_U1.DCC        
          IS   10.000000E-15   10.000000E-15 
         CJO                    3.000000E-12 
          VJ                     .62         
           M                     .44         


**** 10/09/23 14:08:30 ******* PSpice 17.4.0 (Nov 2018) ******* ID# 0 ********

 ** Profile: "SCHEMATIC1-Transient1"  [ C:\Dev\TAUV-Hardware\TAUV-Acoustics-V2\Simulation\Frontend-Design-Candidates\frontend-design-


 ****     BJT MODEL PARAMETERS


******************************************************************************




               X_U1.QNI        X_U1.QPI        
               NPN             PNP             
       LEVEL    1               1            
          IS  100.000000E-18  100.000000E-18 
          BF  150             150            
          NF    1               1            
          BR    1               1            
          NR    1               1            
         ISS    0               0            
          RE    0               0            
          RC    0               0            
         CJE    0               0            
         VJE     .75             .75         
         CJC    0               0            
         VJC     .75             .75         
         MJC     .33             .33         
        XCJC    1               1            
         CJS    0               0            
         VJS     .75             .75         
          TF  400.000000E-12  400.000000E-12 
          KF    0               0            
          AF    1               1            
          CN    2.42            2.2          
           D     .87             .52         


**** 10/09/23 14:08:30 ******* PSpice 17.4.0 (Nov 2018) ******* ID# 0 ********

 ** Profile: "SCHEMATIC1-Transient1"  [ C:\Dev\TAUV-Hardware\TAUV-Acoustics-V2\Simulation\Frontend-Design-Candidates\frontend-design-


 ****     INITIAL TRANSIENT SOLUTION       TEMPERATURE =   27.000 DEG C


******************************************************************************



 NODE   VOLTAGE     NODE   VOLTAGE     NODE   VOLTAGE     NODE   VOLTAGE


(  12V)   12.0000  ( -12V)  -12.0000  (N03290)    0.0000 (N04348)    -.1751     

(N04548) 8.268E-15 (N04690)    0.0000 (N09242)    0.0000 (X_U1.9)    -.1751     

(X_U1.10)     .7713                   (X_U1.11)   11.2290                       

(X_U1.12)     .5944                   (X_U1.13)    1.3639                       

(X_U1.14)     .5944                   (X_U1.15)     .5944                       

(X_U1.16) 13.85E-06                   (X_U1.17)    -.1751                       

(X_U1.18)    -.1751                   (X_U1.3A)    0.0000                       

(X_U1.6A)-8.420E-12                   (P_N00150)    0.0000                      

(P_N00154)    0.0000                  (X_U1.110)    -.7713                      

(X_U1.111)  -11.2290                  (X_U1.112)    -.9446                      

(X_U1.113)   -1.7142                  (X_U1.114)    -.9306                      

(X_U1.115)    -.9075                  (X_U1.116)    -.0870                      

(X_U1.11A)   11.2300                  (X_U1.200) 8.433E-15                      

(X_U1.111B)  -11.2300                 




    VOLTAGE SOURCE CURRENTS
    NAME         CURRENT

    V_V1        -7.520E-03
    V_V2        -2.974E-01
    V_V4         2.258E-18

    TOTAL POWER DISSIPATION   3.66E+00  WATTS

Reducing minimum delta to make the circuit converge.
Reducing minimum delta to make the circuit converge.
Reducing minimum delta to make the circuit converge.

ERROR(ORPSIM-15138): Convergence problem in Transient Analysis at Time =  46.19E-06.
         Time step =  401.9E-21, minimum allowable step size =  1.000E-18

  These voltages failed to converge:

    V(N04548)                 =    3.350GV  \    -1.248V
    V(N04690)                 =    10.00GV  \    -86.49V
    V(X_U1.3A)                =    732.97V  \   439.42mV
    V(X_U1.10)                =     13.39V  \     1.211V
    V(X_U1.200)               =    1.274KV  \   457.16mV
    V(X_U1.9)                 =   -313.43V  \   414.25mV
    V(X_U1.11A)               =   -314.79V  \     11.25V
    V(X_U1.13)                =   -313.43V  \     1.922V
    V(X_U1.12)                =   -319.60V  \     1.168V
    V(X_U1.14)                =   154.41KV  \     1.168V
    V(X_U1.15)                =   153.62KV  \     1.168V
    V(X_U1.16)                =   -1.045KV  \     1.060V
    V(X_U1.6A)                =   -1.063KV  \     1.060V
    V(X_U1.110)               =    732.33V  \  -331.27mV
    V(X_U1.111)               =    -10.95V  \    -11.21V
    V(X_U1.113)               =   -315.00V  \    -1.158V
    V(X_U1.112)               =   -314.22V  \  -371.69mV
    V(X_U1.114)               =   -314.18V  \  -333.71mV
    V(X_U1.115)               =   -1.046KV  \  -178.57mV
    V(X_U1.116)               =   -1.046KV  \   680.00mV
    V(X_U1.18)                =   -312.98V  \   866.47mV
    V(X_U1.17)                =   -313.43V  \   414.25mV

  These supply currents failed to converge:

    I(X_U1.EC)                =     3.143A  \    4.328mA
    I(X_U1.LINP)              =     18.85A  \    53.37uA
    I(X_U1.LOUT)              =    -28.20A  \    -1.266A
    I(X_TX1.L1_TX1)           =  -335.02MA  \    -1.095A
    I(X_TX1.L2_TX1)           =    33.50MA  \    80.56mA
    I(V_V1)                   =   -2.226GA  \   -90.22mA
    I(V_V2)                   =   -4.123GA  \    -1.186A
    I(V_V4)                   =    -18.85A  \   -53.37uA

  These devices failed to converge:
    X_U1.DIA  X_U1.DIB  X_U1.D1   X_U1.D2   X_U1.D3   X_U1.D4   X_U1.Q2A  
    X_U1.Q3A  X_U1.Q4A  X_U1.Q5A  X_U1.Q6A  X_U1.Q7A  X_U1.Q8A  X_U1.Q9A  
    X_U1.Q10A X_U1.Q11A X_U1.Q2B  X_U1.Q3B  X_U1.Q4B  X_U1.Q5B  X_U1.Q6B  
    X_U1.Q7B  X_U1.Q8B  X_U1.Q9B  X_U1.Q10B X_U1.Q11B 

ERROR(ORPSIM-15659): Discontinuing simulation due to convergence problem



  Last node voltages tried were:

 NODE   VOLTAGE     NODE   VOLTAGE     NODE   VOLTAGE     NODE   VOLTAGE


(  12V)   12.0000  ( -12V)  -12.0000  (N03290)     .4000 (N04348)     .8470     

(N04548) 3.350E+09 (N04690) 10.00E+09 (N09242)   11.1540 (X_U1.9) -313.4300     

(X_U1.10)   13.3940                   (X_U1.11)   11.2450                       

(X_U1.12) -319.6000                   (X_U1.13) -313.4300                       

(X_U1.14) 154.4E+03                   (X_U1.15) 153.6E+03                       

(X_U1.16)-1044.5000                   (X_U1.17) -313.4300                       

(X_U1.18) -312.9800                   (X_U1.3A)  732.9700                       

(X_U1.6A)-1063.4000                   (P_N00150)    5.9110                      

(P_N00154)     .0885                  (X_U1.110)  732.3300                      

(X_U1.111)  -10.9470                  (X_U1.112) -314.2200                      

(X_U1.113) -315.0000                  (X_U1.114) -314.1800                      

(X_U1.115)-1046.3000                  (X_U1.116)-1045.5000                      

(X_U1.11A) -314.7900                  (X_U1.200) 1273.8000                      

(X_U1.111B)  -11.2140                 


**** Interrupt ****
**** Param: RELTOL = 0.001
**** Param: ABSTOL = 1e-12
**** Param: VNTOL = 1e-06
**** Param: GMIN = 1e-12
**** Param: TSTOP = 0.0005
**** Param: TMAX = 1e-07
**** Param: ITL1 = 150
**** Param: ITL2 = 20
**** Param: ITL4 = 100
**** Param: AutoConverge = 0
**** Param: AutoConverge.ITL1 = 1000
**** Param: AutoConverge.ITL2 = 1000
**** Param: AutoConverge.ITL4 = 1000
**** Param: AutoConverge.RELTOL = 0.05
**** Param: AutoConverge.ABSTOL = 0.001
**** Param: AutoConverge.VNTOL = 0.001
**** Param: AutoConverge.PIVTOL = 1e-10
**** Param: ADVCONV = 1
**** Param: Current_Simulation = 3
**** Param: METHOD = 0
**** Param: TRTOL = 7
**** Param: STEPGMIN = 0
**** Param: GMINSTEPS = 0
**** Param: ITL6 = 0
**** Param: NOSTEPDEP = 0
**** Param: PTRANSTEP = 0
**** Param: GMINSRC = 0
**** Param: PSEUDOTRAN = 0
**** Param: NOSTEPSRC = 0

ERROR(ORPSIM-15138): Convergence problem in Transient Analysis at Time =  46.19E-06.
         Time step =  803.8E-21, minimum allowable step size =  1.000E-18

  These voltages failed to converge:

    V(N04548)                 =    9.466GV  \    -6.486V
    V(N04690)                 =    10.00GV  \   -353.66V
    V(X_U1.3A)                =    116.49V  \   439.42mV
    V(X_U1.10)                =    113.04V  \     1.211V
    V(X_U1.200)               =    130.34V  \   457.16mV
    V(X_U1.110)               =    120.10V  \  -331.27mV

  These supply currents failed to converge:

    I(X_U1.LINP)              =     53.26A  \    53.29uA
    I(X_U1.LOUT)              =    -77.36A  \    -1.266A
    I(X_TX1.L1_TX1)           =  -946.57MA  \  -571.55mA
    I(X_TX1.L2_TX1)           =    94.66MA  \    28.17mA
    I(V_V1)                   =   463.49MA  \  -346.73mA
    I(V_V2)                   =  -483.08MA  \  -918.25mA
    I(V_V4)                   =    -53.26A  \   -53.29uA

  These devices failed to converge:
    X_U1.DIA  X_U1.DIB  X_U1.Q2A  X_U1.Q3A  X_U1.Q2B  X_U1.Q3B  X_U1.Q9B  

ERROR(ORPSIM-15659): Discontinuing simulation due to convergence problem



  Last node voltages tried were:

 NODE   VOLTAGE     NODE   VOLTAGE     NODE   VOLTAGE     NODE   VOLTAGE


(  12V)   12.0000  ( -12V)  -12.0000  (N03290)     .4000 (N04348)     .8470     

(N04548) 9.466E+09 (N04690) 10.00E+09 (N09242)   11.1530 (X_U1.9)     .4143     

(X_U1.10)  113.0400                   (X_U1.11)   11.2460                       

(X_U1.12)    1.1680                   (X_U1.13)    1.9218                       

(X_U1.14)    1.1680                   (X_U1.15)    1.1680                       

(X_U1.16)    1.0596                   (X_U1.17)     .4143                       

(X_U1.18)     .8665                   (X_U1.3A)  116.4900                       

(X_U1.6A)    1.0596                   (P_N00150)    5.9095                      

(P_N00154)     .0885                  (X_U1.110)  120.1000                      

(X_U1.111)  -11.2130                  (X_U1.112)    -.3717                      

(X_U1.113)   -1.1576                  (X_U1.114)    -.3337                      

(X_U1.115)    -.1786                  (X_U1.116)     .6800                      

(X_U1.11A)   11.2460                  (X_U1.200)  130.3400                      

(X_U1.111B)  -11.2140                 


**** Interrupt ****
